caseds69dg.m
function mpc = caseds69dg


%% MATPOWER Case Format : Version 2
mpc.version = '2';

%%-----  Power Flow Data  -----%%
%% system MVA base
mpc.baseMVA = 100;

%% bus data
%	bus_i	type	Pd	Qd	Gs	Bs	area	Vm	Va	baseKV	zone	Vmax	Vmin
mpc.bus = [
1	3	0	0	0	0	1	1	0	10	0	2	0	;
2	1	0	0	0	0	1	1	0	10	0	2	0	;
3	1	0	0	0	0	1	1	0	10	0	2	0	;
4	1	0	0	0	0	1	1	0	10	0	2	0	;
5	1	0	0	0	0	1	1	0	10	0	2	0	;
6	1	0.0026	0.0022	0	0	1	1	0	10	0	2	0	;
7	1	0.0404	0.03	0	0	1	1	0	10	0	2	0	;
8	2	0.075	0.054	0	0	1	1	0	10	0	2	0	;
9	1	0.03	0.022	0	0	1	1	0	10	0	2	0	;
10	1	0.028	0.019	0	0	1	1	0	10	0	2	0	;
11	1	0.145	0.104	0	0	1	1	0	10	0	2	0	;
12	1	0.145	0.104	0	0	1	1	0	10	0	2	0	;
13	1	0.008	0.0055	0	0	1	1	0	10	0	2	0	;
14	1	0.008	0.0055	0	0	1	1	0	10	0	2	0	;
15	2	0	0	0	0	1	1	0	10	0	2	0	;
16	1	0.0455	0.03	0	0	1	1	0	10	0	2	0	;
17	1	0.06	0.035	0	0	1	1	0	10	0	2	0	;
18	1	0.06	0.035	0	0	1	1	0	10	0	2	0	;
19	1	0	0	0	0	1	1	0	10	0	2	0	;
20	1	0.001	0.0006	0	0	1	1	0	10	0	2	0	;
21	1	0.114	0.081	0	0	1	1	0	10	0	2	0	;
22	1	0.0053	0.0035	0	0	1	1	0	10	0	2	0	;
23	1	0	0	0	0	1	1	0	10	0	2	0	;
24	1	0.028	0.02	0	0	1	1	0	10	0	2	0	;
25	1	0	0	0	0	1	1	0	10	0	2	0	;
26	1	0.014	0.01	0	0	1	1	0	10	0	2	0	;
27	1	0.014	0.01	0	0	1	1	0	10	0	2	0	;
28	1	0.026	0.0186	0	0	1	1	0	10	0	2	0	;
29	1	0.026	0.0186	0	0	1	1	0	10	0	2	0	;
30	2	0	0	0	0	1	1	0	10	0	2	0	;
31	1	0	0	0	0	1	1	0	10	0	2	0	;
32	1	0	0	0	0	1	1	0	10	0	2	0	;
33	1	0.014	0.01	0	0	1	1	0	10	0	2	0	;
34	1	0.0195	0.014	0	0	1	1	0	10	0	2	0	;
35	1	0.006	0.004	0	0	1	1	0	10	0	2	0	;
36	1	0	0	0	0	1	1	0	10	0	2	0	;
37	1	0.079	0.0564	0	0	1	1	0	10	0	2	0	;
38	1	0.3847	0.2745	0	0	1	1	0	10	0	2	0	;
39	1	0.3847	0.2745	0	0	1	1	0	10	0	2	0	;
40	1	0.0405	0.0283	0	0	1	1	0	10	0	2	0	;
41	1	0.0036	0.0027	0	0	1	1	0	10	0	2	0	;
42	1	0.00435	0.0035	0	0	1	1	0	10	0	2	0	;
43	1	0.0264	0.019	0	0	1	1	0	10	0	2	0	;
44	1	0.024	0.0172	0	0	1	1	0	10	0	2	0	;
45	2	0	0	0	0	1	1	0	10	0	2	0	;
46	1	0	0	0	0	1	1	0	10	0	2	0	;
47	2	0	0	0	0	1	1	0	10	0	2	0	;
48	1	0.1	0.072	0	0	1	1	0	10	0	2	0	;
49	1	0	0	0	0	1	1	0	10	0	2	0	;
50	1	1.244	0.888	0	0	1	1	0	10	0	2	0	;
51	1	0.032	0.023	0	0	1	1	0	10	0	2	0	;
52	1	0	0	0	0	1	1	0	10	0	2	0	;
53	1	0.227	0.162	0	0	1	1	0	10	0	2	0	;
54	1	0.059	0.042	0	0	1	1	0	10	0	2	0	;
55	1	0.018	0.013	0	0	1	1	0	10	0	2	0	;
56	1	0.018	0.013	0	0	1	1	0	10	0	2	0	;
57	1	0.028	0.02	0	0	1	1	0	10	0	2	0	;
58	1	0.028	0.02	0	0	1	1	0	10	0	2	0	;
59	1	0.026	0.01855	0	0	1	1	0	10	0	2	0	;
60	1	0.026	0.01855	0	0	1	1	0	10	0	2	0	;
61	2	0	0	0	0	1	1	0	10	0	2	0	;
62	1	0.024	0.017	0	0	1	1	0	10	0	2	0	;
63	1	0.024	0.017	0	0	1	1	0	10	0	2	0	;
64	1	0.0012	0.001	0	0	1	1	0	10	0	2	0	;
65	1	0	0	0	0	1	1	0	10	0	2	0	;
66	1	0.006	0.0043	0	0	1	1	0	10	0	2	0	;
67	1	0	0	0	0	1	1	0	10	0	2	0	;
68	2 0.03922	0.0263	0	0	1	1	0	10	0	2	0	;
69	1	0.03922	0.0263	0	0	1	1	0	10	0	2	0	;




];

%% branch data
%	fbus	tbus	r	x	b	rateA	rateB	rateC	ratio	angle	status	angmin	angmax
mpc.branch = [
1	2	0.005	0.0012	0	0	0	0	0	0	1	-360	360	;
2	3	0.005	0.0012	0	0	0	0	0	0	1	-360	360	;
3	4	0.0015	0.0036	0	0	0	0	0	0	1	-360	360	;
4	5	0.0251	0.0294	0	0	0	0	0	0	1	-360	360	;
5	6	0.366	0.1864	0	0	0	0	0	0	1	-360	360	;
6	7	0.3811	0.1941	0	0	0	0	0	0	1	-360	360	;
7	8	0.0922	0.047	0	0	0	0	0	0	1	-360	360	;
8	9	0.0493	0.0251	0	0	0	0	0	0	1	-360	360	;
9	10	0.819	0.2707	0	0	0	0	0	0	1	-360	360	;
10	11	0.1872	0.0691	0	0	0	0	0	0	1	-360	360	;
11	12	0.7114	0.2351	0	0	0	0	0	0	1	-360	360	;
12	13	1.03	0.34	0	0	0	0	0	0	1	-360	360	;
13	14	1.044	0.345	0	0	0	0	0	0	1	-360	360	;
14	15	1.058	0.3496	0	0	0	0	0	0	1	-360	360	;
15	16	0.1966	0.065	0	0	0	0	0	0	1	-360	360	;
16	17	0.3744	0.1238	0	0	0	0	0	0	1	-360	360	;
17	18	0.0047	0.0016	0	0	0	0	0	0	1	-360	360	;
18	19	0.3276	0.1083	0	0	0	0	0	0	1	-360	360	;
19	20	0.2106	0.0696	0	0	0	0	0	0	1	-360	360	;
20	21	0.3416	0.1129	0	0	0	0	0	0	1	-360	360	;
21	22	0.014	0.0046	0	0	0	0	0	0	1	-360	360	;
22	23	0.1591	0.0526	0	0	0	0	0	0	1	-360	360	;
23	24	0.3463	0.1145	0	0	0	0	0	0	1	-360	360	;
24	25	0.7488	0.2457	0	0	0	0	0	0	1	-360	360	;
25	26	0.3089	0.1021	0	0	0	0	0	0	1	-360	360	;
26	27	0.1732	0.0572	0	0	0	0	0	0	1	-360	360	;
3	28	0.0044	0.0108	0	0	0	0	0	0	1	-360	360	;
28	29	0.064	0.1565	0	0	0	0	0	0	1	-360	360	;
29	30	0.3978	0.1315	0	0	0	0	0	0	1	-360	360	;
30	31	0.0702	0.0232	0	0	0	0	0	0	1	-360	360	;
31	32	0.351	0.116	0	0	0	0	0	0	1	-360	360	;
32	33	0.839	0.2816	0	0	0	0	0	0	1	-360	360	;
33	34	1.708	0.5646	0	0	0	0	0	0	1	-360	360	;
34	35	1.474	0.4873	0	0	0	0	0	0	1	-360	360	;
3	59	0.0044	0.0108	0	0	0	0	0	0	1	-360	360	;
59	60	0.064	0.1565	0	0	0	0	0	0	1	-360	360	;
60	61	0.1053	0.123	0	0	0	0	0	0	1	-360	360	;
61	62	0.0304	0.0355	0	0	0	0	0	0	1	-360	360	;
62	63	0.0018	0.0021	0	0	0	0	0	0	1	-360	360	;
63	64	0.7283	0.8509	0	0	0	0	0	0	1	-360	360	;
64	65	0.31	0.3623	0	0	0	0	0	0	1	-360	360	;
65	66	0.041	0.0478	0	0	0	0	0	0	1	-360	360	;
66	67	0.0092	0.0116	0	0	0	0	0	0	1	-360	360	;
67	68	0.1089	0.1373	0	0	0	0	0	0	1	-360	360	;
68	69	0.0009	0.0012	0	0	0	0	0	0	1	-360	360	;
4	36	0.0034	0.0084	0	0	0	0	0	0	1	-360	360	;
36	37	0.0851	0.2083	0	0	0	0	0	0	1	-360	360	;
37	38	0.2898	0.7091	0	0	0	0	0	0	1	-360	360	;
38	39	0.0822	0.2011	0	0	0	0	0	0	1	-360	360	;
8	40	0.0928	0.0473	0	0	0	0	0	0	1	-360	360	;
40	41	0.3319	0.1114	0	0	0	0	0	0	1	-360	360	;
9	42	0.174	0.0886	0	0	0	0	0	0	1	-360	360	;
42	43	0.203	0.1034	0	0	0	0	0	0	1	-360	360	;
43	44	0.2842	0.1447	0	0	0	0	0	0	1	-360	360	;
44	45	0.2813	0.1433	0	0	0	0	0	0	1	-360	360	;
45	46	1.59	0.5337	0	0	0	0	0	0	1	-360	360	;
46	47	0.7837	0.263	0	0	0	0	0	0	1	-360	360	;
47	48	0.3042	0.1006	0	0	0	0	0	0	1	-360	360	;
48	49	0.3861	0.1172	0	0	0	0	0	0	1	-360	360	;
49	50	0.5075	0.2585	0	0	0	0	0	0	1	-360	360	;
50	51	0.0974	0.0496	0	0	0	0	0	0	1	-360	360	;
51	52	0.145	0.0738	0	0	0	0	0	0	1	-360	360	;
52	53	0.7105	0.3619	0	0	0	0	0	0	1	-360	360	;
53	54	1.041	0.5302	0	0	0	0	0	0	1	-360	360	;
11	55	0.2012	0.0611	0	0	0	0	0	0	1	-360	360	;
55	56	0.0047	0.0014	0	0	0	0	0	0	1	-360	360	;
12	57	0.7394	0.2444	0	0	0	0	0	0	1	-360	360	;
57	58	0.0047	0.0016	0	0	0	0	0	0	1	-360	360	;
];

%% generator data
%	bus	Pg	Qg	Qmax	Qmin	Vg	mBase	status	Pmax	Pmin	Pc1	Pc2	Qc1min	Qc1max	Qc2min	Qc2max	ramp_agc	ramp_10	ramp_30	ramp_q	apf
mpc.gen = [
	1	0	0	150	-20	1	100	1	80	0	0	0	0	0	0	0	0	0	0	0	0;
    8	0.5	0	150	-20	1	100	1	80	0	0	0	0	0	0	0	0	0	0	0	0;
    15	0.5	0	150	-20	1	100	1	80	0	0	0	0	0	0	0	0	0	0	0	0;
    30	0.5	0	150	-20	1	100	1	80	0	0	0	0	0	0	0	0	0	0	0	0;
    47	0.5	0	150	-20	1	100	1	80	0	0	0	0	0	0	0	0	0	0	0	0;
    68	0.5	0	150	-20	1	100	1	80	0	0	0	0	0	0	0	0	0	0	0	0;
    45	0.5	0	150	-20	1	100	1	80	0	0	0	0	0	0	0	0	0	0	0	0;
    61	0.5	0	150	-20	1	100	1	80	0	0	0	0	0	0	0	0	0	0	0	0;
];

